
/*--------------------------------*- C++ -*----------------------------------*\
| =========                 |                                                 |
| \\      /  F ield         | OpenFOAM: The Open Source CFD Toolbox           |
|  \\    /   O peration     | Version:  2.4.0                                 |
|   \\  /    A nd           | Web:      www.OpenFOAM.org                      |
|    \\/     M anipulation  |                                                 |
\*---------------------------------------------------------------------------*/
FoamFile
{
    version     2.0;
    format      ascii;
    class       dictionary;
    location    "system";
    object      controlDict;
}
// * * * * * * * * * * * * * * * * * * * * * * * * * * * * * * * * * * * * * //

application     simpleFoam;

startFrom       startTime;

startTime       0;

stopAt          endTime;

endTime         4000;

deltaT          0.2;

writeControl    timeStep;

writeInterval   100;

purgeWrite      0;

writeFormat     ascii;

writePrecision  6;

writeCompression off;

timeFormat      general;

timePrecision   6;

runTimeModifiable true;


functions
{
forceCoeffs1
{
    type        forceCoeffs;

    functionObjectLibs ( "libforces.so" );

    outputControl   timeStep;

    log         yes;

    patches     ( cylinder );
    pName       p;
    UName       U;
    rho         rhoInf;     // Indicates incompressible
    log         true;
    rhoInf      1;         // Redundant for incompressible
    liftDir     (0 1 0);
    dragDir     (1 0 0);
    CofR        (0 0 0);    // Axle midpoint on ground
    pitchAxis   (0 0 1);
    magUInf     1;
    lRef        1;          // Wheelbase length
    Aref        2.8;       // Estimated
}
}
// ************************************************************************* //
