/*--------------------------------*- C++ -*----------------------------------*\
|       o          |                                                          |
|    o     o       | HELYX-OS                                                  |
|   o   O   o      | Version: v2.3.1                                           |
|    o     o       | Web:     http://www.engys.com                            |
|       o          |                                                          |
\*---------------------------------------------------------------------------*/
FoamFile
{
    version 2.0;
    format ascii;
    class dictionary;
    location system;
    object fvSolution;
}

    SIMPLE
    {
        nNonOrthogonalCorrectors 0;
        pressureImplicitPorousity false;
        pRefCell 0;
        pRefValue 0;
        residualControl
        {
            U 1.0E-15;
            k 1e-15;
            epsilon 1e-15;
            omega 1e-15;
            nuTilda 1e-15;
            T 1e-15;
            p_rgh 1e-15;
            p 1.0E-15;
        }

    }

    solvers
    {
        p
        {
            solver GAMG;
            agglomerator faceAreaPair;
            mergeLevels 1;
            cacheAgglomeration true;
            nCellsInCoarsestLevel 200;
            tolerance 1e-7;
            relTol 0.01;
            smoother GaussSeidel;
            nPreSweeps 0;
            nPostSweeps 2;
            nFinestSweeps 2;
            minIter 1;
        }

        p_rgh
        {
            solver GAMG;
            agglomerator faceAreaPair;
            mergeLevels 1;
            cacheAgglomeration true;
            nCellsInCoarsestLevel 200;
            tolerance 1e-7;
            relTol 0.01;
            smoother GaussSeidel;
            nPreSweeps 0;
            nPostSweeps 2;
            nFinestSweeps 2;
            minIter 1;
        }

        f
        {
            solver GAMG;
            agglomerator faceAreaPair;
            mergeLevels 1;
            cacheAgglomeration true;
            nCellsInCoarsestLevel 200;
            tolerance 1e-7;
            relTol 0.01;
            smoother GaussSeidel;
            nPreSweeps 0;
            nPostSweeps 2;
            nFinestSweeps 2;
            minIter 1;
        }

        U
        {
            solver smoothSolver;
            smoother GaussSeidel;
            tolerance 1e-6;
            relTol 0.1;
            minIter 1;
        }



        rho
        {
            solver PCG;
            preconditioner DIC;
            tolerance 0;
            relTol 0;
            minIter 1;
        }

        rhoFinal
        {
            solver PCG;
            preconditioner DIC;
            tolerance 0;
            relTol 0;
            minIter 1;
        }

        e
        {
            solver PBiCG;
            preconditioner DILU;
            tolerance 1e-06;
            relTol 0.1;
            minIter 1;
        }

    }

    relaxationFactors
    {
        fields
        {
            p_rgh 0.3;
            p 0.3;
            rho 0.05;
        }

        equations
        {
            U 0.7;
            h 0.5;
            k 0.7;
            kl 0.7;
            kt 0.7;
            q 0.7;
            zeta 0.7;
            epsilon 0.7;
            R 0.7;
            nuTilda 0.7;
            omega 0.7;
            T 0.7;
            v2 0.7;
            f 0.7;
        }

    }
